apricots
darkening
libboost
golds
pfs
depressions
imei
corante
recipesource
mache
ranching
seguin
toasting
calderdale
anzeige
toothpick
volser
exhale
westcoast
forwarders
aab
likable
ashburton
natrol
sonstiges
shoestring
markt
vsx
hosa
brads
winsite
whirling
doghouse
altars
displaytime
bda
ranitidine
elit
abolishing
chauncey
grebe
standup
playgirl
flexion
recesses
kinsman
ibex
geomagnetic
lowestoft
blobs
footers
reiss
lewistown
droppings
designator
causative
brt
woolrich
gwasanaethau
keefe
tfp
payed
loveseat
diethylpropion
karyn
overworked
handedly
uncontested
cecile
orbs
fov
doxorubicin
nerja
aime
cardiologists
mutable
militarily
delicacies
fsus
inflating
sputnik
toujours
barometric
joburg
assertequals
gladwell
regrowth
lusaka
lampwork
adultos
cybersex
banca
doughnut
martz
scorching
cribbage
mela
rondo
coffins
tigr
personel
wcpo
activ
uiconstraints
typescript
inetd
scuola
piste
pppd
jove
cashed
ushers
enos
ondemand
altamont
steubenville
rur
danielson
jewry
barfly
vegetarianism
extractors
dictaphone
copperfield
chapelle
callsign
martinis
envisions
flexibly
nakd
natwest
wilsons
whoop
ccn
reposition
msci
cacao
orginal
hobbyists
anat
fleshbot
weta
sindh
pcf
glick
obsoletes
mammogram
sani
webcasting
soggy
apha
ecologist
ararat
narrowband
bph
webstore
maus
reinstalling
gendered
relateddiagram
andra
kingsland
annoys
ssid
rackets
litigants
shimon
ducted
ebsq
crisps
modelle
wristwatches
xenadrine
heiress
linac
identifications
dressy
authenticator
arash
cristobal
stewie
depositories
pcre
godhead
setpoint
canvassing
rockdale
evita
ballmer
portia
shyness
hemphill
taormina
plath
pickers
boardgamegeek
serbo
angelus
subjecting
oci
noviembre
mappoint
surn
momento
minisd
escorte
unsightly
madmums
mosher
digitallife
grahame
forecasters
linoleum
shearling
stockster
frayed
criminality
firstcall
dorint
wmc
culverts
woolen
cuticle
repos
codebase
rdfs
levelling
lter
pimples
hdb
shorted
loghi
spunky
razz
komatsu
bietet
madisonville
readies
shrapnel
jovenes
arthurian
burgos
deuterium
litany
fairest
totalitarianism
trigonometric
selmer
popcap
nutter
bristles
verbosity
aashto
pavarotti
larder
syncing
ganges
vanden
majeure
beret
fallbrook
audiovideo
muay
longshot
rollaway
machen
yor
nonstandard
tbr
manoa
laundries
whoo
truthfulness
atrocious
tefal
tothe
obelisk
crv
valeria
amx
falign
goleta
claret
holst
ebola
redbook
rangel
fru
samos
consolidates
consecration
disaggregated
forbearance
chromatographic
supersport
golly
flumotion
seagrass
congratulates
anais
grievant
reinstalled
entreprises
acerca
plastered
clemons
eurovision
airplus
panchkula
shahid
phospholipids
elsinore
opendocument
apostrophe
ankeny
canzoni
wakeman
moana
wobbly
stepmother
seagulls
ruf
megawatts
denning
lapland
temas
illuminator
marylebone
symbolically
erotico
linx
randle
nhu
unsubstantiated
centroid
monogrammed
publius
gambian
tailgating
ihnen
colville
jesuits
vpu
russische
voluminous
mottled
plu
sgp
soccernet
zing
downunder
snips
allawi
lockup
tosses
cholinergic
manifesting
lhr
barthelemy
babymint
estella
benning
implantable
ligo
haddad
univariate
katia
motorcross
sangha
publics
shn
myfonts
rien
normandie
usuarios
caml
resiliency
barossa
astrobiology
scrip
disinfectants
kawai
uktv
dreamtime
berkshires
inhumane
rocher
inadequately
arabella
trobe
unlocks
auctex
pogues
panicked
matti
developerworks
bullitt
throng
toed
flemming
smartcard
kushner
hardcoresex
crump
gunderson
paramus
cepr
lma
politica
randomization
rinsing
reschedule
tob
hostal
preempt
shunned
abandons
resold
cyclo
phosphor
frontenac
wipeout
mambots
appetites
unscented
ipfw
ergonomically
roosters
homologues
loring
ionosphere
belvidere
trotsky
airworthiness
sistemas
devsource
turnip
retroviral
juxtaposition
llnl
keyloggers
amgen
marci
willey
yau
groucho
crushes
foreshore
carnivorous
berber
gusset
dissapointed
mince
dtds
banish
mibs
metalwork
flapping
refering
fino
punting
frets
triphasil
scab
bhavnagar
schism
creedence
musee
wellstone
sculptured
lleol
gpib
tidbit
suivant
allyson
teriyaki
jemima
impoundment
interrelationships
gres
coffeecup
maru
joon
josephus
ulong
maputo
heretics
chev
dogged
krispy
dogtown
apparition
abernathy
barristers
raz
fermion
weltweit
fluor
bergstrom
inoperable
esrc
asdf
gollum
scrutinized
earthworks
thrashing
ceus
salome
macintyre
srd
cyclonic
cft
unsubscribing
shawna
pinyin
thumping
ipac
ramone
fethiye
vara
multipath
hakusho
tein
treeview
atd
wonderswan
eugenics
dustjacket
quenching
emmanuelle
dlocaledir
hunch
molotov
amaryllis
sandpaper
messes
hbc
perdition
fannin
interscope
wintering
eba
topple
melayu
hardiness
liss
phew
furuno
moynihan
chickasaw
johnsons
pungent
heng
dro
discontinuance
carbonated
waives
wraparound
jfs
ejackulation
reboots
headliner
unbridled
sqr
bustin
powernetworker
vul
superposition
supremes
insite
fanzine
astrologer
laney
purportedly
antigenic
rurouni
dietetics
assembles
veracruz
hausfrauen
wsf
benzo
vietcong
chairwoman
petrochemicals
pata
cntr
nettime
techies
bentyxxo
xango
dut
canvass
radish
gatto
manifestly
checkmate
gantt
valli
tuv
starlets
emphatic
susy
plavix
roomba
aficionado
motivator
bijan
riv
storrs
tabula
outgrowth
reigate
emmons
homeward
withered
sandstorm
laci
taoist
nameplate
baiting
surrendering
axp
wcb
mothering
billard
chrysanthemum
reconstructions
innodb
sunspot
aisha
fluorine
healdsburg
retype
fortification
mingo
fishin
likud
cyberread
pme
rothwell
spurt
elation
kmf
creationist
wth
wail
artistically
setlist
scrollbars
bocelli
zuckerman
vtd
ampicillin
arcy
wasn
cowbell
elma
rater
everson
epileptic
angebot
cezanne
crag
hace
feller
tamagotchi
earpiece
franca
thymidine
disa
gearlog
tranche
enmity
volum
sanctum
mazes
prsp
openvpn
mcentire
londra
kaur
unconstrained
datadirect
souter
redfern
tulum
nyy
pagesize
osteopathy
stavanger
jenks
cated
autry
schutz
materialistic
boaz
fip
rooftops
findpage
discourages
benitez
boater
shackleton
weirdo
congresswoman
dalek
tass
jahre
itrip
myob
helloween
gud
reperfusion
fieldhouse
manukau
libname
eucharistic
mong
homeware
ckt
winmx
mobic
farts
rourke
lackawanna
villiers
comercio
huy
brooksville
oncoming
falwell
gwb
racked
donwload
wrth
attrs
knockoffs
esm
cloister
bionicle
hygienist
nichole
quidditch
dartmoor
provincia
rowlett
stapled
gardenweb
butternut
nummer
fancied
groban
asw
arora
spoilt
yatsura
predisposed
hydrochloric
filippo
warr
hainan
esg
logoff
cockroach
xanadu
computable
strode
occup
playgroup
agen
marchand
tintin
disorganized
ethnicities
webposition
crafter
roby
disassemble
shaftesbury
littoral
boltzmann
caos
abidjan
anise
grainy
hospitalizations
denn
aggressor
giggled
notizie
zoek
sepultura
walkabout
pepperoni
optimising
cityreview
boathouse
katt
weissman
consummation
siri
herkimer
namecite
fronting
refreshingly
aph
ryland
sculptural
neurophysiology
gsk
hermanus
mocldy
ngage
annexure
ipchains
yosef
tlds
gozo
pso
zola
heute
helton
unfaithful
outflows
saas
executioner
asthmatic
guillemot
realizations
linguistically
jaco
mckinsey
dezember
hylafax
reconstitution
amateurwebcam
lumberton
interviewee
intereco
portola
hematologic
sgc
titular
rebbe
swears
pinup
diminutive
transcendence
surah
brendon
farberware
statisticians
swatches
perioperative
maoist
henkel
lilangeni
trapeze
lemmings
extents
spams
omagh
workcentre
sunbird
cellophane
paring
deland
blevins
sacha
damning
cardholders
dddd
accessori
qo
araujo
mylist
pcu
matrimony
armas
kloczek
humbug
enet
seperated
clusty
rolfe
signalled
cuttack
provantage
dominio
hyperbaric
granulated
nannofossil
logansport
bulldozer
ailment
homely
blacksonblondes
subprime
overpayments
sharpie
modutils
whitehaven
whaley
perpetuity
stepfather
currier
taproot
topsite
delorme
disprove
rayner
aio
rossum
urbanism
colloquia
ewr
dinero
bernhardt
incurable
capillaries
dixit
mountainside
shoving
furnishes
menthol
blackouts
starkey
eves
hpux
canby
dragonflies
montrail
findfont
anointing
aigner
urusei
soundblaster
beatle
webzine
corinna
propranolol
inescapable
swabs
strictest
domiciled
absorbance
minx
lbw
audiofile
eclipses
prise
simba
mohd
misdemeanors
hadrian
redgoldfish
cornbread
jcaho
appendixes
aod
supremely
crestview
keynotes
fotolia
subnets
mensch
cau
hastened
espanola
busnes
perpetuating
froggy
decarboxylase
elfman
throughs
prioritise
oreck
schottland
bagpipe
terns
erythematosus
prostrate
ftrs
excitatory
mcevoy
fujita
niagra
yq
provisionally
cocked
dribble
raged
hardwired
hosta
grambling
boyne
exten
seeger
ringgold
